jmc_23
     RDKit          3D

 36 38  0  0  1  0  0  0  0  0999 V2000
   -9.0680   -4.5930  -15.4580 Cl  0  0  0  0  0  0  0  0  0  0  0  0
   -4.5710   -7.6890  -15.6880 Cl  0  0  0  0  0  0  0  0  0  0  0  0
   -5.2160   -3.7490  -16.0150 C   0  0  0  0  0  0  0  0  0  0  0  0
   -4.6130   -5.0040  -15.9460 C   0  0  0  0  0  0  0  0  0  0  0  0
   -5.3690   -6.1460  -15.6990 C   0  0  0  0  0  0  0  0  0  0  0  0
   -6.7570   -6.0210  -15.5070 C   0  0  0  0  0  0  0  0  0  0  0  0
   -7.3530   -4.7470  -15.5980 C   0  0  0  0  0  0  0  0  0  0  0  0
   -6.5840   -3.6180  -15.8360 C   0  0  0  0  0  0  0  0  0  0  0  0
   -7.6360   -7.1610  -15.1730 C   0  0  0  0  0  0  0  0  0  0  0  0
   -8.1280   -7.2080  -14.0420 O   0  0  0  0  0  0  0  0  0  0  0  0
   -7.9030   -8.0700  -16.1270 N   0  0  0  0  0  0  0  0  0  0  0  0
   -8.7490   -9.1780  -16.0390 C   0  0  0  0  0  0  0  0  0  0  0  0
   -9.5620   -9.5060  -14.9340 C   0  0  0  0  0  0  0  0  0  0  0  0
  -10.4340  -10.5880  -15.0440 C   0  0  0  0  0  0  0  0  0  0  0  0
  -10.4700  -11.3160  -16.1600 N   0  0  0  0  0  0  0  0  0  0  0  0
   -9.7140  -11.0540  -17.2280 C   0  0  0  0  0  0  0  0  0  0  0  0
   -8.8520   -9.9560  -17.1920 C   0  0  0  0  0  0  0  0  0  0  0  0
   -9.8170  -11.9110  -18.3310 N   0  0  0  0  0  0  0  0  0  0  0  0
   -8.9510  -12.0680  -19.3560 C   0  0  0  0  0  0  0  0  0  0  0  0
   -7.8730  -11.4800  -19.4480 O   0  0  0  0  0  0  0  0  0  0  0  0
   -9.4040  -13.0060  -20.4860 C   0  0  1  0  0  0  0  0  0  0  0  0
   -8.9050  -12.6590  -21.8930 C   0  0  0  0  0  0  0  0  0  0  0  0
   -8.3700  -13.8720  -21.1960 C   0  0  1  0  0  0  0  0  0  0  0  0
   -7.0950  -13.8360  -20.8130 F   0  0  0  0  0  0  0  0  0  0  0  0
   -4.6025   -2.8576  -16.2126 H   0  0  0  0  0  0  0  0  0  0  0  0
   -3.5259   -5.0927  -16.0886 H   0  0  0  0  0  0  0  0  0  0  0  0
   -7.0563   -2.6256  -15.8824 H   0  0  0  0  0  0  0  0  0  0  0  0
   -7.4271   -7.9331  -17.0302 H   0  0  0  0  0  0  0  0  0  0  0  0
   -9.5090   -8.9200  -14.0046 H   0  0  0  0  0  0  0  0  0  0  0  0
  -11.0970  -10.8428  -14.2040 H   0  0  0  0  0  0  0  0  0  0  0  0
   -8.2509   -9.7033  -18.0779 H   0  0  0  0  0  0  0  0  0  0  0  0
  -10.6628  -12.4978  -18.3651 H   0  0  0  0  0  0  0  0  0  0  0  0
  -10.3717  -13.2061  -20.0027 H   0  0  0  0  0  0  0  0  0  0  0  0
   -9.5759  -12.7736  -22.7572 H   0  0  0  0  0  0  0  0  0  0  0  0
   -8.4543  -11.7702  -22.3588 H   0  0  0  0  0  0  0  0  0  0  0  0
   -8.3101  -14.9480  -21.4166 H   0  0  0  0  0  0  0  0  0  0  0  0
  3  4  2  0
  3  8  1  0
  4  5  1  0
  2  5  1  0
  5  6  2  0
  6  9  1  0
  1  7  1  0
  6  7  1  0
  7  8  2  0
  9 10  2  0
  9 11  1  0
 11 12  1  0
 12 13  2  0
 13 14  1  0
 14 15  2  0
 15 16  1  0
 16 17  2  0
 12 17  1  0
 16 18  1  0
 18 19  1  0
 19 20  2  0
 19 21  1  0
 21 22  1  0
 22 23  1  0
 21 23  1  0
 23 24  1  0
  3 25  1  0
  4 26  1  0
  8 27  1  0
 11 28  1  0
 13 29  1  0
 14 30  1  0
 17 31  1  0
 18 32  1  0
 21 33  1  6
 22 34  1  0
 22 35  1  0
 23 36  1  6
M  END
>  <dG.expt>  (1) 
-11.699999999999999

$$$$
ejm_47
     RDKit          3D

 39 41  0  0  0  0  0  0  0  0999 V2000
   -9.0680   -4.5930  -15.4580 Cl  0  0  0  0  0  0  0  0  0  0  0  0
   -4.5710   -7.6890  -15.6880 Cl  0  0  0  0  0  0  0  0  0  0  0  0
   -5.2160   -3.7490  -16.0150 C   0  0  0  0  0  0  0  0  0  0  0  0
   -4.6130   -5.0040  -15.9460 C   0  0  0  0  0  0  0  0  0  0  0  0
   -5.3690   -6.1460  -15.6990 C   0  0  0  0  0  0  0  0  0  0  0  0
   -6.7570   -6.0210  -15.5070 C   0  0  0  0  0  0  0  0  0  0  0  0
   -7.3530   -4.7470  -15.5980 C   0  0  0  0  0  0  0  0  0  0  0  0
   -6.5840   -3.6180  -15.8360 C   0  0  0  0  0  0  0  0  0  0  0  0
   -7.6360   -7.1610  -15.1730 C   0  0  0  0  0  0  0  0  0  0  0  0
   -8.1280   -7.2080  -14.0420 O   0  0  0  0  0  0  0  0  0  0  0  0
   -7.9030   -8.0700  -16.1270 N   0  0  0  0  0  0  0  0  0  0  0  0
   -8.7490   -9.1780  -16.0390 C   0  0  0  0  0  0  0  0  0  0  0  0
   -9.5620   -9.5060  -14.9340 C   0  0  0  0  0  0  0  0  0  0  0  0
  -10.4340  -10.5880  -15.0440 C   0  0  0  0  0  0  0  0  0  0  0  0
  -10.4700  -11.3160  -16.1600 N   0  0  0  0  0  0  0  0  0  0  0  0
   -9.7140  -11.0540  -17.2280 C   0  0  0  0  0  0  0  0  0  0  0  0
   -8.8520   -9.9560  -17.1920 C   0  0  0  0  0  0  0  0  0  0  0  0
   -9.7370  -11.9520  -18.3270 N   0  0  0  0  0  0  0  0  0  0  0  0
   -8.9120  -12.0110  -19.4130 C   0  0  0  0  0  0  0  0  0  0  0  0
   -8.0110  -11.2010  -19.6380 O   0  0  0  0  0  0  0  0  0  0  0  0
   -9.0910  -13.1660  -20.4350 C   0  0  0  0  0  0  0  0  0  0  0  0
   -7.7680  -13.9390  -20.7160 C   0  0  0  0  0  0  0  0  0  0  0  0
   -8.1830  -14.0090  -22.1840 C   0  0  0  0  0  0  0  0  0  0  0  0
   -8.9990  -12.7410  -21.9230 C   0  0  0  0  0  0  0  0  0  0  0  0
   -4.6025   -2.8576  -16.2126 H   0  0  0  0  0  0  0  0  0  0  0  0
   -3.5259   -5.0927  -16.0886 H   0  0  0  0  0  0  0  0  0  0  0  0
   -7.0563   -2.6256  -15.8824 H   0  0  0  0  0  0  0  0  0  0  0  0
   -7.4271   -7.9331  -17.0302 H   0  0  0  0  0  0  0  0  0  0  0  0
   -9.5090   -8.9200  -14.0046 H   0  0  0  0  0  0  0  0  0  0  0  0
  -11.0970  -10.8428  -14.2040 H   0  0  0  0  0  0  0  0  0  0  0  0
   -8.2509   -9.7033  -18.0779 H   0  0  0  0  0  0  0  0  0  0  0  0
  -10.4836  -12.6611  -18.3014 H   0  0  0  0  0  0  0  0  0  0  0  0
   -9.9948  -13.6266  -20.0096 H   0  0  0  0  0  0  0  0  0  0  0  0
   -6.8519  -13.3601  -20.5274 H   0  0  0  0  0  0  0  0  0  0  0  0
   -7.5009  -14.8443  -20.1511 H   0  0  0  0  0  0  0  0  0  0  0  0
   -7.3593  -13.8881  -22.9029 H   0  0  0  0  0  0  0  0  0  0  0  0
   -8.6305  -14.9128  -22.6231 H   0  0  0  0  0  0  0  0  0  0  0  0
   -8.4518  -11.8026  -22.0964 H   0  0  0  0  0  0  0  0  0  0  0  0
   -9.9005  -12.5093  -22.5092 H   0  0  0  0  0  0  0  0  0  0  0  0
  3  4  2  0
  3  8  1  0
  4  5  1  0
  2  5  1  0
  5  6  2  0
  6  9  1  0
  1  7  1  0
  6  7  1  0
  7  8  2  0
  9 10  2  0
  9 11  1  0
 11 12  1  0
 12 13  2  0
 13 14  1  0
 14 15  2  0
 15 16  1  0
 16 17  2  0
 12 17  1  0
 16 18  1  0
 18 19  1  0
 19 20  2  0
 19 21  1  0
 21 22  1  0
 22 23  1  0
 23 24  1  0
 21 24  1  0
  3 25  1  0
  4 26  1  0
  8 27  1  0
 11 28  1  0
 13 29  1  0
 14 30  1  0
 17 31  1  0
 18 32  1  0
 21 33  1  0
 22 34  1  0
 22 35  1  0
 23 36  1  0
 23 37  1  0
 24 38  1  0
 24 39  1  0
M  END
>  <dG.expt>  (2) 
-9.6999999999999993

$$$$
ejm_49
     RDKit          3D

 39 41  0  0  0  0  0  0  0  0999 V2000
   -9.0680   -4.5930  -15.4580 Cl  0  0  0  0  0  0  0  0  0  0  0  0
   -4.5710   -7.6890  -15.6880 Cl  0  0  0  0  0  0  0  0  0  0  0  0
   -5.2160   -3.7490  -16.0150 C   0  0  0  0  0  0  0  0  0  0  0  0
   -4.6130   -5.0040  -15.9460 C   0  0  0  0  0  0  0  0  0  0  0  0
   -5.3690   -6.1460  -15.6990 C   0  0  0  0  0  0  0  0  0  0  0  0
   -6.7570   -6.0210  -15.5070 C   0  0  0  0  0  0  0  0  0  0  0  0
   -7.3530   -4.7470  -15.5980 C   0  0  0  0  0  0  0  0  0  0  0  0
   -6.5840   -3.6180  -15.8360 C   0  0  0  0  0  0  0  0  0  0  0  0
   -7.6360   -7.1610  -15.1730 C   0  0  0  0  0  0  0  0  0  0  0  0
   -8.1280   -7.2080  -14.0420 O   0  0  0  0  0  0  0  0  0  0  0  0
   -7.9030   -8.0700  -16.1270 N   0  0  0  0  0  0  0  0  0  0  0  0
   -8.7490   -9.1780  -16.0390 C   0  0  0  0  0  0  0  0  0  0  0  0
   -9.5620   -9.5060  -14.9340 C   0  0  0  0  0  0  0  0  0  0  0  0
  -10.4340  -10.5880  -15.0440 C   0  0  0  0  0  0  0  0  0  0  0  0
  -10.4700  -11.3160  -16.1600 N   0  0  0  0  0  0  0  0  0  0  0  0
   -9.7140  -11.0540  -17.2280 C   0  0  0  0  0  0  0  0  0  0  0  0
   -8.8520   -9.9560  -17.1920 C   0  0  0  0  0  0  0  0  0  0  0  0
   -9.6870  -11.8470  -18.4290 N   0  0  0  0  0  0  0  0  0  0  0  0
   -8.6090  -11.8850  -19.2860 C   0  0  0  0  0  0  0  0  0  0  0  0
   -7.5160  -11.4090  -18.9870 O   0  0  0  0  0  0  0  0  0  0  0  0
   -8.3120  -13.5030  -23.2680 C   0  0  0  0  0  0  0  0  0  0  0  0
   -9.1070  -14.1420  -22.3250 C   0  0  0  0  0  0  0  0  0  0  0  0
   -9.3050  -13.5800  -21.0610 C   0  0  0  0  0  0  0  0  0  0  0  0
   -8.6420  -12.4110  -20.7050 C   0  0  0  0  0  0  0  0  0  0  0  0
   -7.8310  -11.7810  -21.6720 C   0  0  0  0  0  0  0  0  0  0  0  0
   -7.6800  -12.3090  -22.9500 C   0  0  0  0  0  0  0  0  0  0  0  0
   -4.6025   -2.8576  -16.2126 H   0  0  0  0  0  0  0  0  0  0  0  0
   -3.5259   -5.0927  -16.0886 H   0  0  0  0  0  0  0  0  0  0  0  0
   -7.0563   -2.6256  -15.8824 H   0  0  0  0  0  0  0  0  0  0  0  0
   -7.4271   -7.9331  -17.0302 H   0  0  0  0  0  0  0  0  0  0  0  0
   -9.5090   -8.9200  -14.0046 H   0  0  0  0  0  0  0  0  0  0  0  0
  -11.0970  -10.8428  -14.2040 H   0  0  0  0  0  0  0  0  0  0  0  0
   -8.2509   -9.7033  -18.0779 H   0  0  0  0  0  0  0  0  0  0  0  0
  -10.5152  -12.4145  -18.6592 H   0  0  0  0  0  0  0  0  0  0  0  0
   -8.1833  -13.9437  -24.2676 H   0  0  0  0  0  0  0  0  0  0  0  0
   -9.5856  -15.1002  -22.5758 H   0  0  0  0  0  0  0  0  0  0  0  0
   -9.9869  -14.0636  -20.3461 H   0  0  0  0  0  0  0  0  0  0  0  0
   -7.3059  -10.8508  -21.4094 H   0  0  0  0  0  0  0  0  0  0  0  0
   -7.0672  -11.7866  -23.6994 H   0  0  0  0  0  0  0  0  0  0  0  0
  3  4  2  0
  3  8  1  0
  4  5  1  0
  2  5  1  0
  5  6  2  0
  6  9  1  0
  1  7  1  0
  6  7  1  0
  7  8  2  0
  9 10  2  0
  9 11  1  0
 11 12  1  0
 12 13  2  0
 13 14  1  0
 14 15  2  0
 15 16  1  0
 16 17  2  0
 12 17  1  0
 16 18  1  0
 18 19  1  0
 19 20  2  0
 21 22  2  0
 21 26  1  0
 22 23  1  0
 23 24  2  0
 19 24  1  0
 24 25  1  0
 25 26  2  0
  3 27  1  0
  4 28  1  0
  8 29  1  0
 11 30  1  0
 13 31  1  0
 14 32  1  0
 17 33  1  0
 18 34  1  0
 21 35  1  0
 22 36  1  0
 23 37  1  0
 25 38  1  0
 26 39  1  0
M  END
>  <dG.expt>  (3) 
-7.75

$$$$
ejm_31
     RDKit          3D

 32 33  0  0  0  0  0  0  0  0999 V2000
   -9.0680   -4.5930  -15.4580 Cl  0  0  0  0  0  0  0  0  0  0  0  0
   -4.5710   -7.6890  -15.6880 Cl  0  0  0  0  0  0  0  0  0  0  0  0
   -5.2160   -3.7490  -16.0150 C   0  0  0  0  0  0  0  0  0  0  0  0
   -4.6130   -5.0040  -15.9460 C   0  0  0  0  0  0  0  0  0  0  0  0
   -5.3690   -6.1460  -15.6990 C   0  0  0  0  0  0  0  0  0  0  0  0
   -6.7570   -6.0210  -15.5070 C   0  0  0  0  0  0  0  0  0  0  0  0
   -7.3530   -4.7470  -15.5980 C   0  0  0  0  0  0  0  0  0  0  0  0
   -6.5840   -3.6180  -15.8360 C   0  0  0  0  0  0  0  0  0  0  0  0
   -7.6360   -7.1610  -15.1730 C   0  0  0  0  0  0  0  0  0  0  0  0
   -8.1280   -7.2080  -14.0420 O   0  0  0  0  0  0  0  0  0  0  0  0
   -7.9030   -8.0700  -16.1270 N   0  0  0  0  0  0  0  0  0  0  0  0
   -8.7490   -9.1780  -16.0390 C   0  0  0  0  0  0  0  0  0  0  0  0
   -9.5620   -9.5060  -14.9340 C   0  0  0  0  0  0  0  0  0  0  0  0
  -10.4340  -10.5880  -15.0440 C   0  0  0  0  0  0  0  0  0  0  0  0
  -10.4700  -11.3160  -16.1600 N   0  0  0  0  0  0  0  0  0  0  0  0
   -9.7140  -11.0540  -17.2280 C   0  0  0  0  0  0  0  0  0  0  0  0
   -8.8520   -9.9560  -17.1920 C   0  0  0  0  0  0  0  0  0  0  0  0
   -9.8500  -11.9140  -18.3160 N   0  0  0  0  0  0  0  0  0  0  0  0
   -9.0360  -12.0780  -19.3750 C   0  0  0  0  0  0  0  0  0  0  0  0
   -7.9720  -11.4890  -19.5550 O   0  0  0  0  0  0  0  0  0  0  0  0
   -9.4920  -13.0660  -20.4320 C   0  0  0  0  0  0  0  0  0  0  0  0
   -4.6025   -2.8576  -16.2126 H   0  0  0  0  0  0  0  0  0  0  0  0
   -3.5259   -5.0927  -16.0886 H   0  0  0  0  0  0  0  0  0  0  0  0
   -7.0563   -2.6256  -15.8824 H   0  0  0  0  0  0  0  0  0  0  0  0
   -7.4271   -7.9331  -17.0302 H   0  0  0  0  0  0  0  0  0  0  0  0
   -9.5090   -8.9200  -14.0046 H   0  0  0  0  0  0  0  0  0  0  0  0
  -11.0970  -10.8428  -14.2040 H   0  0  0  0  0  0  0  0  0  0  0  0
   -8.2509   -9.7033  -18.0779 H   0  0  0  0  0  0  0  0  0  0  0  0
  -10.6918  -12.5075  -18.3086 H   0  0  0  0  0  0  0  0  0  0  0  0
   -9.9050  -13.9609  -19.9436 H   0  0  0  0  0  0  0  0  0  0  0  0
  -10.2663  -12.6004  -21.0594 H   0  0  0  0  0  0  0  0  0  0  0  0
   -8.6353  -13.3531  -21.0594 H   0  0  0  0  0  0  0  0  0  0  0  0
  3  4  2  0
  3  8  1  0
  4  5  1  0
  2  5  1  0
  5  6  2  0
  6  9  1  0
  1  7  1  0
  6  7  1  0
  7  8  2  0
  9 10  2  0
  9 11  1  0
 11 12  1  0
 12 13  2  0
 13 14  1  0
 14 15  2  0
 15 16  1  0
 16 17  2  0
 12 17  1  0
 16 18  1  0
 18 19  1  0
 19 20  2  0
 19 21  1  0
  3 22  1  0
  4 23  1  0
  8 24  1  0
 11 25  1  0
 13 26  1  0
 14 27  1  0
 17 28  1  0
 18 29  1  0
 21 30  1  0
 21 31  1  0
 21 32  1  0
M  END
>  <dG.expt>  (4) 
-9.5399999999999991

$$$$
ejm_45
     RDKit          3D

 39 41  0  0  0  0  0  0  0  0999 V2000
   -9.0680   -4.5930  -15.4580 Cl  0  0  0  0  0  0  0  0  0  0  0  0
   -4.5710   -7.6890  -15.6880 Cl  0  0  0  0  0  0  0  0  0  0  0  0
   -5.2160   -3.7490  -16.0150 C   0  0  0  0  0  0  0  0  0  0  0  0
   -4.6130   -5.0040  -15.9460 C   0  0  0  0  0  0  0  0  0  0  0  0
   -5.3690   -6.1460  -15.6990 C   0  0  0  0  0  0  0  0  0  0  0  0
   -6.7570   -6.0210  -15.5070 C   0  0  0  0  0  0  0  0  0  0  0  0
   -7.3530   -4.7470  -15.5980 C   0  0  0  0  0  0  0  0  0  0  0  0
   -6.5840   -3.6180  -15.8360 C   0  0  0  0  0  0  0  0  0  0  0  0
   -7.6360   -7.1610  -15.1730 C   0  0  0  0  0  0  0  0  0  0  0  0
   -8.1280   -7.2080  -14.0420 O   0  0  0  0  0  0  0  0  0  0  0  0
   -7.9030   -8.0700  -16.1270 N   0  0  0  0  0  0  0  0  0  0  0  0
   -8.7490   -9.1780  -16.0390 C   0  0  0  0  0  0  0  0  0  0  0  0
   -9.5620   -9.5060  -14.9340 C   0  0  0  0  0  0  0  0  0  0  0  0
  -10.4340  -10.5880  -15.0440 C   0  0  0  0  0  0  0  0  0  0  0  0
  -10.4700  -11.3160  -16.1600 N   0  0  0  0  0  0  0  0  0  0  0  0
   -9.7140  -11.0540  -17.2280 C   0  0  0  0  0  0  0  0  0  0  0  0
   -8.8520   -9.9560  -17.1920 C   0  0  0  0  0  0  0  0  0  0  0  0
   -9.8420  -11.8910  -18.3440 N   0  0  0  0  0  0  0  0  0  0  0  0
   -8.9800  -12.0450  -19.3740 C   0  0  0  0  0  0  0  0  0  0  0  0
   -7.8700  -11.5180  -19.4270 O   0  0  0  0  0  0  0  0  0  0  0  0
   -9.4500  -12.9030  -20.5570 C   0  0  0  0  0  0  0  0  0  0  0  0
   -8.5570  -12.8470  -21.8220 C   0  0  0  0  0  0  0  0  0  0  0  0
   -7.3120  -13.7030  -21.8520 C   0  0  0  0  0  0  0  0  0  0  0  0
   -8.5070  -14.0660  -22.7110 C   0  0  0  0  0  0  0  0  0  0  0  0
   -4.6025   -2.8576  -16.2126 H   0  0  0  0  0  0  0  0  0  0  0  0
   -3.5259   -5.0927  -16.0886 H   0  0  0  0  0  0  0  0  0  0  0  0
   -7.0563   -2.6256  -15.8824 H   0  0  0  0  0  0  0  0  0  0  0  0
   -7.4271   -7.9331  -17.0302 H   0  0  0  0  0  0  0  0  0  0  0  0
   -9.5090   -8.9200  -14.0046 H   0  0  0  0  0  0  0  0  0  0  0  0
  -11.0970  -10.8428  -14.2040 H   0  0  0  0  0  0  0  0  0  0  0  0
   -8.2509   -9.7033  -18.0779 H   0  0  0  0  0  0  0  0  0  0  0  0
  -10.6996  -12.4599  -18.3849 H   0  0  0  0  0  0  0  0  0  0  0  0
   -9.4938  -13.9491  -20.2199 H   0  0  0  0  0  0  0  0  0  0  0  0
  -10.4245  -12.4913  -20.8585 H   0  0  0  0  0  0  0  0  0  0  0  0
   -8.7695  -11.7792  -21.9792 H   0  0  0  0  0  0  0  0  0  0  0  0
   -6.3928  -13.3215  -22.3206 H   0  0  0  0  0  0  0  0  0  0  0  0
   -6.7085  -14.2266  -21.0960 H   0  0  0  0  0  0  0  0  0  0  0  0
   -9.1124  -14.9511  -22.4657 H   0  0  0  0  0  0  0  0  0  0  0  0
   -8.6663  -14.2545  -23.7830 H   0  0  0  0  0  0  0  0  0  0  0  0
  3  4  2  0
  3  8  1  0
  4  5  1  0
  2  5  1  0
  5  6  2  0
  6  9  1  0
  1  7  1  0
  6  7  1  0
  7  8  2  0
  9 10  2  0
  9 11  1  0
 11 12  1  0
 12 13  2  0
 13 14  1  0
 14 15  2  0
 15 16  1  0
 16 17  2  0
 12 17  1  0
 16 18  1  0
 18 19  1  0
 19 20  2  0
 19 21  1  0
 21 22  1  0
 22 23  1  0
 22 24  1  0
 23 24  1  0
  3 25  1  0
  4 26  1  0
  8 27  1  0
 11 28  1  0
 13 29  1  0
 14 30  1  0
 17 31  1  0
 18 32  1  0
 21 33  1  0
 21 34  1  0
 22 35  1  0
 23 36  1  0
 23 37  1  0
 24 38  1  0
 24 39  1  0
M  END
>  <dG.expt>  (5) 
-9.5600000000000005

$$$$
ejm_44
     RDKit          3D

 41 42  0  0  0  0  0  0  0  0999 V2000
   -9.0680   -4.5930  -15.4580 Cl  0  0  0  0  0  0  0  0  0  0  0  0
   -4.5710   -7.6890  -15.6880 Cl  0  0  0  0  0  0  0  0  0  0  0  0
   -5.2160   -3.7490  -16.0150 C   0  0  0  0  0  0  0  0  0  0  0  0
   -4.6130   -5.0040  -15.9460 C   0  0  0  0  0  0  0  0  0  0  0  0
   -5.3690   -6.1460  -15.6990 C   0  0  0  0  0  0  0  0  0  0  0  0
   -6.7570   -6.0210  -15.5070 C   0  0  0  0  0  0  0  0  0  0  0  0
   -7.3530   -4.7470  -15.5980 C   0  0  0  0  0  0  0  0  0  0  0  0
   -6.5840   -3.6180  -15.8360 C   0  0  0  0  0  0  0  0  0  0  0  0
   -7.6360   -7.1610  -15.1730 C   0  0  0  0  0  0  0  0  0  0  0  0
   -8.1280   -7.2080  -14.0420 O   0  0  0  0  0  0  0  0  0  0  0  0
   -7.9030   -8.0700  -16.1270 N   0  0  0  0  0  0  0  0  0  0  0  0
   -8.7490   -9.1780  -16.0390 C   0  0  0  0  0  0  0  0  0  0  0  0
   -9.5620   -9.5060  -14.9340 C   0  0  0  0  0  0  0  0  0  0  0  0
  -10.4340  -10.5880  -15.0440 C   0  0  0  0  0  0  0  0  0  0  0  0
  -10.4700  -11.3160  -16.1600 N   0  0  0  0  0  0  0  0  0  0  0  0
   -9.7140  -11.0540  -17.2280 C   0  0  0  0  0  0  0  0  0  0  0  0
   -8.8520   -9.9560  -17.1920 C   0  0  0  0  0  0  0  0  0  0  0  0
   -9.5500  -11.9160  -18.3830 N   0  0  0  0  0  0  0  0  0  0  0  0
   -8.4510  -11.9510  -19.2470 C   0  0  0  0  0  0  0  0  0  0  0  0
   -7.4300  -11.3000  -19.0390 O   0  0  0  0  0  0  0  0  0  0  0  0
   -8.3700  -12.7460  -20.6100 C   0  0  0  0  0  0  0  0  0  0  0  0
   -9.6960  -13.3610  -20.9530 C   0  0  0  0  0  0  0  0  0  0  0  0
   -7.9450  -11.8220  -21.8090 C   0  0  0  0  0  0  0  0  0  0  0  0
   -7.3090  -13.8880  -20.6250 C   0  0  0  0  0  0  0  0  0  0  0  0
   -4.6025   -2.8576  -16.2126 H   0  0  0  0  0  0  0  0  0  0  0  0
   -3.5259   -5.0927  -16.0886 H   0  0  0  0  0  0  0  0  0  0  0  0
   -7.0563   -2.6256  -15.8824 H   0  0  0  0  0  0  0  0  0  0  0  0
   -7.4271   -7.9331  -17.0302 H   0  0  0  0  0  0  0  0  0  0  0  0
   -9.5090   -8.9200  -14.0046 H   0  0  0  0  0  0  0  0  0  0  0  0
  -11.0970  -10.8428  -14.2040 H   0  0  0  0  0  0  0  0  0  0  0  0
   -8.2509   -9.7033  -18.0779 H   0  0  0  0  0  0  0  0  0  0  0  0
  -10.3207  -12.5680  -18.5874 H   0  0  0  0  0  0  0  0  0  0  0  0
  -10.2348  -13.6109  -20.0271 H   0  0  0  0  0  0  0  0  0  0  0  0
  -10.2903  -12.6466  -21.5416 H   0  0  0  0  0  0  0  0  0  0  0  0
   -9.5345  -14.2761  -21.5416 H   0  0  0  0  0  0  0  0  0  0  0  0
   -7.5154  -10.8880  -21.4177 H   0  0  0  0  0  0  0  0  0  0  0  0
   -7.1952  -12.3411  -22.4241 H   0  0  0  0  0  0  0  0  0  0  0  0
   -8.8271  -11.5905  -22.4241 H   0  0  0  0  0  0  0  0  0  0  0  0
   -7.0527  -14.1639  -19.5915 H   0  0  0  0  0  0  0  0  0  0  0  0
   -7.7208  -14.7643  -21.1470 H   0  0  0  0  0  0  0  0  0  0  0  0
   -6.4048  -13.5416  -21.1470 H   0  0  0  0  0  0  0  0  0  0  0  0
  3  4  2  0
  3  8  1  0
  4  5  1  0
  2  5  1  0
  5  6  2  0
  6  9  1  0
  1  7  1  0
  6  7  1  0
  7  8  2  0
  9 10  2  0
  9 11  1  0
 11 12  1  0
 12 13  2  0
 13 14  1  0
 14 15  2  0
 15 16  1  0
 16 17  2  0
 12 17  1  0
 16 18  1  0
 18 19  1  0
 19 20  2  0
 19 21  1  0
 21 22  1  0
 21 23  1  0
 21 24  1  0
  3 25  1  0
  4 26  1  0
  8 27  1  0
 11 28  1  0
 13 29  1  0
 14 30  1  0
 17 31  1  0
 18 32  1  0
 22 33  1  0
 22 34  1  0
 22 35  1  0
 23 36  1  0
 23 37  1  0
 23 38  1  0
 24 39  1  0
 24 40  1  0
 24 41  1  0
M  END
>  <dG.expt>  (6) 
-7.4199999999999999

$$$$
ejm_43
     RDKit          3D

 38 39  0  0  0  0  0  0  0  0999 V2000
   -9.0680   -4.5930  -15.4580 Cl  0  0  0  0  0  0  0  0  0  0  0  0
   -4.5710   -7.6890  -15.6880 Cl  0  0  0  0  0  0  0  0  0  0  0  0
   -5.2160   -3.7490  -16.0150 C   0  0  0  0  0  0  0  0  0  0  0  0
   -4.6130   -5.0040  -15.9460 C   0  0  0  0  0  0  0  0  0  0  0  0
   -5.3690   -6.1460  -15.6990 C   0  0  0  0  0  0  0  0  0  0  0  0
   -6.7570   -6.0210  -15.5070 C   0  0  0  0  0  0  0  0  0  0  0  0
   -7.3530   -4.7470  -15.5980 C   0  0  0  0  0  0  0  0  0  0  0  0
   -6.5840   -3.6180  -15.8360 C   0  0  0  0  0  0  0  0  0  0  0  0
   -7.6360   -7.1610  -15.1730 C   0  0  0  0  0  0  0  0  0  0  0  0
   -8.1280   -7.2080  -14.0420 O   0  0  0  0  0  0  0  0  0  0  0  0
   -7.9030   -8.0700  -16.1270 N   0  0  0  0  0  0  0  0  0  0  0  0
   -8.7490   -9.1780  -16.0390 C   0  0  0  0  0  0  0  0  0  0  0  0
   -9.5620   -9.5060  -14.9340 C   0  0  0  0  0  0  0  0  0  0  0  0
  -10.4340  -10.5880  -15.0440 C   0  0  0  0  0  0  0  0  0  0  0  0
  -10.4700  -11.3160  -16.1600 N   0  0  0  0  0  0  0  0  0  0  0  0
   -9.7140  -11.0540  -17.2280 C   0  0  0  0  0  0  0  0  0  0  0  0
   -8.8520   -9.9560  -17.1920 C   0  0  0  0  0  0  0  0  0  0  0  0
   -9.6840  -11.9770  -18.3300 N   0  0  0  0  0  0  0  0  0  0  0  0
   -8.8100  -12.0420  -19.3920 C   0  0  0  0  0  0  0  0  0  0  0  0
   -7.9270  -11.2100  -19.5970 O   0  0  0  0  0  0  0  0  0  0  0  0
   -8.8760  -13.2060  -20.4410 C   0  0  0  0  0  0  0  0  0  0  0  0
   -7.5500  -14.0080  -20.5680 C   0  0  0  0  0  0  0  0  0  0  0  0
   -9.1400  -12.7430  -21.8840 C   0  0  0  0  0  0  0  0  0  0  0  0
   -4.6025   -2.8576  -16.2126 H   0  0  0  0  0  0  0  0  0  0  0  0
   -3.5259   -5.0927  -16.0886 H   0  0  0  0  0  0  0  0  0  0  0  0
   -7.0563   -2.6256  -15.8824 H   0  0  0  0  0  0  0  0  0  0  0  0
   -7.4271   -7.9331  -17.0302 H   0  0  0  0  0  0  0  0  0  0  0  0
   -9.5090   -8.9200  -14.0046 H   0  0  0  0  0  0  0  0  0  0  0  0
  -11.0970  -10.8428  -14.2040 H   0  0  0  0  0  0  0  0  0  0  0  0
   -8.2509   -9.7033  -18.0779 H   0  0  0  0  0  0  0  0  0  0  0  0
  -10.4237  -12.6937  -18.3242 H   0  0  0  0  0  0  0  0  0  0  0  0
   -9.7035  -13.8094  -20.0396 H   0  0  0  0  0  0  0  0  0  0  0  0
   -7.1648  -14.2410  -19.5643 H   0  0  0  0  0  0  0  0  0  0  0  0
   -7.7384  -14.9437  -21.1148 H   0  0  0  0  0  0  0  0  0  0  0  0
   -6.8087  -13.4067  -21.1148 H   0  0  0  0  0  0  0  0  0  0  0  0
   -9.6848  -11.7875  -21.8686 H   0  0  0  0  0  0  0  0  0  0  0  0
   -8.1818  -12.6103  -22.4076 H   0  0  0  0  0  0  0  0  0  0  0  0
   -9.7422  -13.5001  -22.4076 H   0  0  0  0  0  0  0  0  0  0  0  0
  3  4  2  0
  3  8  1  0
  4  5  1  0
  2  5  1  0
  5  6  2  0
  6  9  1  0
  1  7  1  0
  6  7  1  0
  7  8  2  0
  9 10  2  0
  9 11  1  0
 11 12  1  0
 12 13  2  0
 13 14  1  0
 14 15  2  0
 15 16  1  0
 16 17  2  0
 12 17  1  0
 16 18  1  0
 18 19  1  0
 19 20  2  0
 19 21  1  0
 21 22  1  0
 21 23  1  0
  3 24  1  0
  4 25  1  0
  8 26  1  0
 11 27  1  0
 13 28  1  0
 14 29  1  0
 17 30  1  0
 18 31  1  0
 21 32  1  0
 22 33  1  0
 22 34  1  0
 22 35  1  0
 23 36  1  0
 23 37  1  0
 23 38  1  0
M  END
>  <dG.expt>  (7) 
-8.2599999999999998

$$$$
ejm_50
     RDKit          3D

 33 34  0  0  0  0  0  0  0  0999 V2000
   -9.0680   -4.5930  -15.4580 Cl  0  0  0  0  0  0  0  0  0  0  0  0
   -4.5710   -7.6890  -15.6880 Cl  0  0  0  0  0  0  0  0  0  0  0  0
   -5.2160   -3.7490  -16.0150 C   0  0  0  0  0  0  0  0  0  0  0  0
   -4.6130   -5.0040  -15.9460 C   0  0  0  0  0  0  0  0  0  0  0  0
   -5.3690   -6.1460  -15.6990 C   0  0  0  0  0  0  0  0  0  0  0  0
   -6.7570   -6.0210  -15.5070 C   0  0  0  0  0  0  0  0  0  0  0  0
   -7.3530   -4.7470  -15.5980 C   0  0  0  0  0  0  0  0  0  0  0  0
   -6.5840   -3.6180  -15.8360 C   0  0  0  0  0  0  0  0  0  0  0  0
   -7.6360   -7.1610  -15.1730 C   0  0  0  0  0  0  0  0  0  0  0  0
   -8.1280   -7.2080  -14.0420 O   0  0  0  0  0  0  0  0  0  0  0  0
   -7.9030   -8.0700  -16.1270 N   0  0  0  0  0  0  0  0  0  0  0  0
   -8.7490   -9.1780  -16.0390 C   0  0  0  0  0  0  0  0  0  0  0  0
   -9.5620   -9.5060  -14.9340 C   0  0  0  0  0  0  0  0  0  0  0  0
  -10.4340  -10.5880  -15.0440 C   0  0  0  0  0  0  0  0  0  0  0  0
  -10.4700  -11.3160  -16.1600 N   0  0  0  0  0  0  0  0  0  0  0  0
   -9.7140  -11.0540  -17.2280 C   0  0  0  0  0  0  0  0  0  0  0  0
   -8.8520   -9.9560  -17.1920 C   0  0  0  0  0  0  0  0  0  0  0  0
   -9.8780  -11.8980  -18.3230 N   0  0  0  0  0  0  0  0  0  0  0  0
   -9.0470  -12.1260  -19.3590 C   0  0  0  0  0  0  0  0  0  0  0  0
   -7.9410  -11.5930  -19.4900 O   0  0  0  0  0  0  0  0  0  0  0  0
   -9.5680  -13.0990  -20.4410 C   0  0  0  0  0  0  0  0  0  0  0  0
   -8.5690  -14.0210  -20.8810 O   0  0  0  0  0  0  0  0  0  0  0  0
   -4.6025   -2.8576  -16.2126 H   0  0  0  0  0  0  0  0  0  0  0  0
   -3.5259   -5.0927  -16.0886 H   0  0  0  0  0  0  0  0  0  0  0  0
   -7.0563   -2.6256  -15.8824 H   0  0  0  0  0  0  0  0  0  0  0  0
   -7.4271   -7.9331  -17.0302 H   0  0  0  0  0  0  0  0  0  0  0  0
   -9.5090   -8.9200  -14.0046 H   0  0  0  0  0  0  0  0  0  0  0  0
  -11.0970  -10.8428  -14.2040 H   0  0  0  0  0  0  0  0  0  0  0  0
   -8.2509   -9.7033  -18.0779 H   0  0  0  0  0  0  0  0  0  0  0  0
  -10.7630  -12.4246  -18.3443 H   0  0  0  0  0  0  0  0  0  0  0  0
  -10.4130  -13.6676  -20.0254 H   0  0  0  0  0  0  0  0  0  0  0  0
   -9.8708  -12.4973  -21.3107 H   0  0  0  0  0  0  0  0  0  0  0  0
   -8.1271  -14.4289  -20.0946 H   0  0  0  0  0  0  0  0  0  0  0  0
  3  4  2  0
  3  8  1  0
  4  5  1  0
  2  5  1  0
  5  6  2  0
  6  9  1  0
  1  7  1  0
  6  7  1  0
  7  8  2  0
  9 10  2  0
  9 11  1  0
 11 12  1  0
 12 13  2  0
 13 14  1  0
 14 15  2  0
 15 16  1  0
 16 17  2  0
 12 17  1  0
 16 18  1  0
 18 19  1  0
 19 20  2  0
 19 21  1  0
 21 22  1  0
  3 23  1  0
  4 24  1  0
  8 25  1  0
 11 26  1  0
 13 27  1  0
 14 28  1  0
 17 29  1  0
 18 30  1  0
 21 31  1  0
 21 32  1  0
 22 33  1  0
M  END
>  <dG.expt>  (8) 
-8.9800000000000004

$$$$
ejm_42
     RDKit          3D

 35 36  0  0  0  0  0  0  0  0999 V2000
   -9.0680   -4.5930  -15.4580 Cl  0  0  0  0  0  0  0  0  0  0  0  0
   -4.5710   -7.6890  -15.6880 Cl  0  0  0  0  0  0  0  0  0  0  0  0
   -5.2160   -3.7490  -16.0150 C   0  0  0  0  0  0  0  0  0  0  0  0
   -4.6130   -5.0040  -15.9460 C   0  0  0  0  0  0  0  0  0  0  0  0
   -5.3690   -6.1460  -15.6990 C   0  0  0  0  0  0  0  0  0  0  0  0
   -6.7570   -6.0210  -15.5070 C   0  0  0  0  0  0  0  0  0  0  0  0
   -7.3530   -4.7470  -15.5980 C   0  0  0  0  0  0  0  0  0  0  0  0
   -6.5840   -3.6180  -15.8360 C   0  0  0  0  0  0  0  0  0  0  0  0
   -7.6360   -7.1610  -15.1730 C   0  0  0  0  0  0  0  0  0  0  0  0
   -8.1280   -7.2080  -14.0420 O   0  0  0  0  0  0  0  0  0  0  0  0
   -7.9030   -8.0700  -16.1270 N   0  0  0  0  0  0  0  0  0  0  0  0
   -8.7490   -9.1780  -16.0390 C   0  0  0  0  0  0  0  0  0  0  0  0
   -9.5620   -9.5060  -14.9340 C   0  0  0  0  0  0  0  0  0  0  0  0
  -10.4340  -10.5880  -15.0440 C   0  0  0  0  0  0  0  0  0  0  0  0
  -10.4700  -11.3160  -16.1600 N   0  0  0  0  0  0  0  0  0  0  0  0
   -9.7140  -11.0540  -17.2280 C   0  0  0  0  0  0  0  0  0  0  0  0
   -8.8520   -9.9560  -17.1920 C   0  0  0  0  0  0  0  0  0  0  0  0
   -9.8290  -11.9130  -18.3270 N   0  0  0  0  0  0  0  0  0  0  0  0
   -8.9920  -12.0600  -19.3760 C   0  0  0  0  0  0  0  0  0  0  0  0
   -7.9340  -11.4480  -19.5170 O   0  0  0  0  0  0  0  0  0  0  0  0
   -9.4180  -13.0300  -20.4830 C   0  0  0  0  0  0  0  0  0  0  0  0
   -8.2520  -13.8180  -21.1230 C   0  0  0  0  0  0  0  0  0  0  0  0
   -4.6025   -2.8576  -16.2126 H   0  0  0  0  0  0  0  0  0  0  0  0
   -3.5259   -5.0927  -16.0886 H   0  0  0  0  0  0  0  0  0  0  0  0
   -7.0563   -2.6256  -15.8824 H   0  0  0  0  0  0  0  0  0  0  0  0
   -7.4271   -7.9331  -17.0302 H   0  0  0  0  0  0  0  0  0  0  0  0
   -9.5090   -8.9200  -14.0046 H   0  0  0  0  0  0  0  0  0  0  0  0
  -11.0970  -10.8428  -14.2040 H   0  0  0  0  0  0  0  0  0  0  0  0
   -8.2509   -9.7033  -18.0779 H   0  0  0  0  0  0  0  0  0  0  0  0
  -10.6652  -12.5143  -18.3368 H   0  0  0  0  0  0  0  0  0  0  0  0
  -10.1272  -13.7528  -20.0534 H   0  0  0  0  0  0  0  0  0  0  0  0
   -9.8615  -12.4191  -21.2831 H   0  0  0  0  0  0  0  0  0  0  0  0
   -7.6197  -14.2453  -20.3307 H   0  0  0  0  0  0  0  0  0  0  0  0
   -8.6562  -14.6288  -21.7468 H   0  0  0  0  0  0  0  0  0  0  0  0
   -7.6504  -13.1405  -21.7468 H   0  0  0  0  0  0  0  0  0  0  0  0
  3  4  2  0
  3  8  1  0
  4  5  1  0
  2  5  1  0
  5  6  2  0
  6  9  1  0
  1  7  1  0
  6  7  1  0
  7  8  2  0
  9 10  2  0
  9 11  1  0
 11 12  1  0
 12 13  2  0
 13 14  1  0
 14 15  2  0
 15 16  1  0
 16 17  2  0
 12 17  1  0
 16 18  1  0
 18 19  1  0
 19 20  2  0
 19 21  1  0
 21 22  1  0
  3 23  1  0
  4 24  1  0
  8 25  1  0
 11 26  1  0
 13 27  1  0
 14 28  1  0
 17 29  1  0
 18 30  1  0
 21 31  1  0
 21 32  1  0
 22 33  1  0
 22 34  1  0
 22 35  1  0
M  END
>  <dG.expt>  (9) 
-9.7799999999999994

$$$$
ejm_55
     RDKit          3D

 33 34  0  0  0  0  0  0  0  0999 V2000
   -9.0680   -4.5930  -15.4580 Cl  0  0  0  0  0  0  0  0  0  0  0  0
   -4.5710   -7.6890  -15.6880 Cl  0  0  0  0  0  0  0  0  0  0  0  0
   -5.2160   -3.7490  -16.0150 C   0  0  0  0  0  0  0  0  0  0  0  0
   -4.6130   -5.0040  -15.9460 C   0  0  0  0  0  0  0  0  0  0  0  0
   -5.3690   -6.1460  -15.6990 C   0  0  0  0  0  0  0  0  0  0  0  0
   -6.7570   -6.0210  -15.5070 C   0  0  0  0  0  0  0  0  0  0  0  0
   -7.3530   -4.7470  -15.5980 C   0  0  0  0  0  0  0  0  0  0  0  0
   -6.5840   -3.6180  -15.8360 C   0  0  0  0  0  0  0  0  0  0  0  0
   -7.6360   -7.1610  -15.1730 C   0  0  0  0  0  0  0  0  0  0  0  0
   -8.1280   -7.2080  -14.0420 O   0  0  0  0  0  0  0  0  0  0  0  0
   -7.9030   -8.0700  -16.1270 N   0  0  0  0  0  0  0  0  0  0  0  0
   -8.7490   -9.1780  -16.0390 C   0  0  0  0  0  0  0  0  0  0  0  0
   -9.5620   -9.5060  -14.9340 C   0  0  0  0  0  0  0  0  0  0  0  0
  -10.4340  -10.5880  -15.0440 C   0  0  0  0  0  0  0  0  0  0  0  0
  -10.4700  -11.3160  -16.1600 N   0  0  0  0  0  0  0  0  0  0  0  0
   -9.7140  -11.0540  -17.2280 C   0  0  0  0  0  0  0  0  0  0  0  0
   -8.8520   -9.9560  -17.1920 C   0  0  0  0  0  0  0  0  0  0  0  0
   -9.8470  -11.9230  -18.3050 N   0  0  0  0  0  0  0  0  0  0  0  0
   -9.0390  -12.0600  -19.4160 C   0  0  0  0  0  0  0  0  0  0  0  0
   -8.0080  -11.4390  -19.6760 O   0  0  0  0  0  0  0  0  0  0  0  0
   -9.5680  -12.9930  -20.2120 O   0  0  0  0  0  0  0  0  0  0  0  0
   -8.9090  -13.3710  -21.4160 C   0  0  0  0  0  0  0  0  0  0  0  0
   -4.6025   -2.8576  -16.2126 H   0  0  0  0  0  0  0  0  0  0  0  0
   -3.5259   -5.0927  -16.0886 H   0  0  0  0  0  0  0  0  0  0  0  0
   -7.0563   -2.6256  -15.8824 H   0  0  0  0  0  0  0  0  0  0  0  0
   -7.4271   -7.9331  -17.0302 H   0  0  0  0  0  0  0  0  0  0  0  0
   -9.5090   -8.9200  -14.0046 H   0  0  0  0  0  0  0  0  0  0  0  0
  -11.0970  -10.8428  -14.2040 H   0  0  0  0  0  0  0  0  0  0  0  0
   -8.2509   -9.7033  -18.0779 H   0  0  0  0  0  0  0  0  0  0  0  0
  -10.6617  -12.5522  -18.2690 H   0  0  0  0  0  0  0  0  0  0  0  0
   -7.9785  -13.9048  -21.1727 H   0  0  0  0  0  0  0  0  0  0  0  0
   -9.5666  -14.0292  -22.0028 H   0  0  0  0  0  0  0  0  0  0  0  0
   -8.6728  -12.4711  -22.0028 H   0  0  0  0  0  0  0  0  0  0  0  0
  3  4  2  0
  3  8  1  0
  4  5  1  0
  2  5  1  0
  5  6  2  0
  6  9  1  0
  1  7  1  0
  6  7  1  0
  7  8  2  0
  9 10  2  0
  9 11  1  0
 11 12  1  0
 12 13  2  0
 13 14  1  0
 14 15  2  0
 15 16  1  0
 16 17  2  0
 12 17  1  0
 16 18  1  0
 18 19  1  0
 19 20  2  0
 19 21  1  0
 21 22  1  0
  3 23  1  0
  4 24  1  0
  8 25  1  0
 11 26  1  0
 13 27  1  0
 14 28  1  0
 17 29  1  0
 18 30  1  0
 22 31  1  0
 22 32  1  0
 22 33  1  0
M  END
>  <dG.expt>  (10) 
-9.2100000000000009

$$$$
ejm_48
     RDKit          3D

 42 44  0  0  0  0  0  0  0  0999 V2000
   -9.0680   -4.5930  -15.4580 Cl  0  0  0  0  0  0  0  0  0  0  0  0
   -4.5710   -7.6890  -15.6880 Cl  0  0  0  0  0  0  0  0  0  0  0  0
   -5.2160   -3.7490  -16.0150 C   0  0  0  0  0  0  0  0  0  0  0  0
   -4.6130   -5.0040  -15.9460 C   0  0  0  0  0  0  0  0  0  0  0  0
   -5.3690   -6.1460  -15.6990 C   0  0  0  0  0  0  0  0  0  0  0  0
   -6.7570   -6.0210  -15.5070 C   0  0  0  0  0  0  0  0  0  0  0  0
   -7.3530   -4.7470  -15.5980 C   0  0  0  0  0  0  0  0  0  0  0  0
   -6.5840   -3.6180  -15.8360 C   0  0  0  0  0  0  0  0  0  0  0  0
   -7.6360   -7.1610  -15.1730 C   0  0  0  0  0  0  0  0  0  0  0  0
   -8.1280   -7.2080  -14.0420 O   0  0  0  0  0  0  0  0  0  0  0  0
   -7.9030   -8.0700  -16.1270 N   0  0  0  0  0  0  0  0  0  0  0  0
   -8.7490   -9.1780  -16.0390 C   0  0  0  0  0  0  0  0  0  0  0  0
   -9.5620   -9.5060  -14.9340 C   0  0  0  0  0  0  0  0  0  0  0  0
  -10.4340  -10.5880  -15.0440 C   0  0  0  0  0  0  0  0  0  0  0  0
  -10.4700  -11.3160  -16.1600 N   0  0  0  0  0  0  0  0  0  0  0  0
   -9.7140  -11.0540  -17.2280 C   0  0  0  0  0  0  0  0  0  0  0  0
   -8.8520   -9.9560  -17.1920 C   0  0  0  0  0  0  0  0  0  0  0  0
   -9.6980  -11.9710  -18.3380 N   0  0  0  0  0  0  0  0  0  0  0  0
   -8.8750  -12.0150  -19.4440 C   0  0  0  0  0  0  0  0  0  0  0  0
   -8.0330  -11.1500  -19.6830 O   0  0  0  0  0  0  0  0  0  0  0  0
   -8.9760  -13.1950  -20.4850 C   0  0  0  0  0  0  0  0  0  0  0  0
   -8.9960  -12.7960  -21.9810 C   0  0  0  0  0  0  0  0  0  0  0  0
   -7.5530  -12.5930  -22.4640 C   0  0  0  0  0  0  0  0  0  0  0  0
   -6.6980  -13.4090  -21.5010 C   0  0  0  0  0  0  0  0  0  0  0  0
   -7.7120  -14.0900  -20.5750 C   0  0  0  0  0  0  0  0  0  0  0  0
   -4.6025   -2.8576  -16.2126 H   0  0  0  0  0  0  0  0  0  0  0  0
   -3.5259   -5.0927  -16.0886 H   0  0  0  0  0  0  0  0  0  0  0  0
   -7.0563   -2.6256  -15.8824 H   0  0  0  0  0  0  0  0  0  0  0  0
   -7.4271   -7.9331  -17.0302 H   0  0  0  0  0  0  0  0  0  0  0  0
   -9.5090   -8.9200  -14.0046 H   0  0  0  0  0  0  0  0  0  0  0  0
  -11.0970  -10.8428  -14.2040 H   0  0  0  0  0  0  0  0  0  0  0  0
   -8.2509   -9.7033  -18.0779 H   0  0  0  0  0  0  0  0  0  0  0  0
  -10.4139  -12.7106  -18.3002 H   0  0  0  0  0  0  0  0  0  0  0  0
   -9.8984  -13.6521  -20.0973 H   0  0  0  0  0  0  0  0  0  0  0  0
   -9.4728  -13.5940  -22.5691 H   0  0  0  0  0  0  0  0  0  0  0  0
   -9.5652  -11.8635  -22.1091 H   0  0  0  0  0  0  0  0  0  0  0  0
   -7.4343  -12.9610  -23.4938 H   0  0  0  0  0  0  0  0  0  0  0  0
   -7.2656  -11.5313  -22.4747 H   0  0  0  0  0  0  0  0  0  0  0  0
   -6.1044  -14.1577  -22.0461 H   0  0  0  0  0  0  0  0  0  0  0  0
   -5.9778  -12.7870  -20.9493 H   0  0  0  0  0  0  0  0  0  0  0  0
   -7.9832  -15.0751  -20.9825 H   0  0  0  0  0  0  0  0  0  0  0  0
   -7.2756  -14.2272  -19.5746 H   0  0  0  0  0  0  0  0  0  0  0  0
  3  4  2  0
  3  8  1  0
  4  5  1  0
  2  5  1  0
  5  6  2  0
  6  9  1  0
  1  7  1  0
  6  7  1  0
  7  8  2  0
  9 10  2  0
  9 11  1  0
 11 12  1  0
 12 13  2  0
 13 14  1  0
 14 15  2  0
 15 16  1  0
 16 17  2  0
 12 17  1  0
 16 18  1  0
 18 19  1  0
 19 20  2  0
 19 21  1  0
 21 22  1  0
 22 23  1  0
 23 24  1  0
 24 25  1  0
 21 25  1  0
  3 26  1  0
  4 27  1  0
  8 28  1  0
 11 29  1  0
 13 30  1  0
 14 31  1  0
 17 32  1  0
 18 33  1  0
 21 34  1  0
 22 35  1  0
 22 36  1  0
 23 37  1  0
 23 38  1  0
 24 39  1  0
 24 40  1  0
 25 41  1  0
 25 42  1  0
M  END
>  <dG.expt>  (11) 
-9

$$$$
ejm_54
     RDKit          3D

 37 38  0  0  0  0  0  0  0  0999 V2000
   -9.0680   -4.5930  -15.4580 Cl  0  0  0  0  0  0  0  0  0  0  0  0
   -4.5710   -7.6890  -15.6880 Cl  0  0  0  0  0  0  0  0  0  0  0  0
   -5.2160   -3.7490  -16.0150 C   0  0  0  0  0  0  0  0  0  0  0  0
   -4.6130   -5.0040  -15.9460 C   0  0  0  0  0  0  0  0  0  0  0  0
   -5.3690   -6.1460  -15.6990 C   0  0  0  0  0  0  0  0  0  0  0  0
   -6.7570   -6.0210  -15.5070 C   0  0  0  0  0  0  0  0  0  0  0  0
   -7.3530   -4.7470  -15.5980 C   0  0  0  0  0  0  0  0  0  0  0  0
   -6.5840   -3.6180  -15.8360 C   0  0  0  0  0  0  0  0  0  0  0  0
   -7.6360   -7.1610  -15.1730 C   0  0  0  0  0  0  0  0  0  0  0  0
   -8.1280   -7.2080  -14.0420 O   0  0  0  0  0  0  0  0  0  0  0  0
   -7.9030   -8.0700  -16.1270 N   0  0  0  0  0  0  0  0  0  0  0  0
   -8.7490   -9.1780  -16.0390 C   0  0  0  0  0  0  0  0  0  0  0  0
   -9.5620   -9.5060  -14.9340 C   0  0  0  0  0  0  0  0  0  0  0  0
  -10.4340  -10.5880  -15.0440 C   0  0  0  0  0  0  0  0  0  0  0  0
  -10.4700  -11.3160  -16.1600 N   0  0  0  0  0  0  0  0  0  0  0  0
   -9.7140  -11.0540  -17.2280 C   0  0  0  0  0  0  0  0  0  0  0  0
   -8.8520   -9.9560  -17.1920 C   0  0  0  0  0  0  0  0  0  0  0  0
   -9.8570  -11.9010  -18.3310 N   0  0  0  0  0  0  0  0  0  0  0  0
   -9.0130  -12.0740  -19.3630 C   0  0  0  0  0  0  0  0  0  0  0  0
   -7.9140  -11.5350  -19.4810 O   0  0  0  0  0  0  0  0  0  0  0  0
   -9.4820  -12.9470  -20.2640 N   0  0  0  0  0  0  0  0  0  0  0  0
   -8.6960  -13.5460  -21.3470 C   0  0  0  0  0  0  0  0  0  0  0  0
   -8.4190  -12.5990  -22.5230 C   0  0  0  0  0  0  0  0  0  0  0  0
   -4.6025   -2.8576  -16.2126 H   0  0  0  0  0  0  0  0  0  0  0  0
   -3.5259   -5.0927  -16.0886 H   0  0  0  0  0  0  0  0  0  0  0  0
   -7.0563   -2.6256  -15.8824 H   0  0  0  0  0  0  0  0  0  0  0  0
   -7.4271   -7.9331  -17.0302 H   0  0  0  0  0  0  0  0  0  0  0  0
   -9.5090   -8.9200  -14.0046 H   0  0  0  0  0  0  0  0  0  0  0  0
  -11.0970  -10.8428  -14.2040 H   0  0  0  0  0  0  0  0  0  0  0  0
   -8.2509   -9.7033  -18.0779 H   0  0  0  0  0  0  0  0  0  0  0  0
  -10.7189  -12.4643  -18.3562 H   0  0  0  0  0  0  0  0  0  0  0  0
  -10.4727  -13.2189  -20.1902 H   0  0  0  0  0  0  0  0  0  0  0  0
   -7.7308  -13.8726  -20.9326 H   0  0  0  0  0  0  0  0  0  0  0  0
   -9.2927  -14.3792  -21.7465 H   0  0  0  0  0  0  0  0  0  0  0  0
   -8.1298  -11.6103  -22.1373 H   0  0  0  0  0  0  0  0  0  0  0  0
   -7.6023  -13.0062  -23.1372 H   0  0  0  0  0  0  0  0  0  0  0  0
   -9.3264  -12.5019  -23.1372 H   0  0  0  0  0  0  0  0  0  0  0  0
  3  4  2  0
  3  8  1  0
  4  5  1  0
  2  5  1  0
  5  6  2  0
  6  9  1  0
  1  7  1  0
  6  7  1  0
  7  8  2  0
  9 10  2  0
  9 11  1  0
 11 12  1  0
 12 13  2  0
 13 14  1  0
 14 15  2  0
 15 16  1  0
 16 17  2  0
 12 17  1  0
 16 18  1  0
 18 19  1  0
 19 20  2  0
 19 21  1  0
 21 22  1  0
 22 23  1  0
  3 24  1  0
  4 25  1  0
  8 26  1  0
 11 27  1  0
 13 28  1  0
 14 29  1  0
 17 30  1  0
 18 31  1  0
 21 32  1  0
 22 33  1  0
 22 34  1  0
 23 35  1  0
 23 36  1  0
 23 37  1  0
M  END
>  <dG.expt>  (12) 
-10.529999999999999

$$$$
jmc_28
     RDKit          3D

 39 41  0  0  1  0  0  0  0  0999 V2000
   -9.0680   -4.5930  -15.4580 Cl  0  0  0  0  0  0  0  0  0  0  0  0
   -4.5710   -7.6890  -15.6880 Cl  0  0  0  0  0  0  0  0  0  0  0  0
   -5.2160   -3.7490  -16.0150 C   0  0  0  0  0  0  0  0  0  0  0  0
   -4.6130   -5.0040  -15.9460 C   0  0  0  0  0  0  0  0  0  0  0  0
   -5.3690   -6.1460  -15.6990 C   0  0  0  0  0  0  0  0  0  0  0  0
   -6.7570   -6.0210  -15.5070 C   0  0  0  0  0  0  0  0  0  0  0  0
   -7.3530   -4.7470  -15.5980 C   0  0  0  0  0  0  0  0  0  0  0  0
   -6.5840   -3.6180  -15.8360 C   0  0  0  0  0  0  0  0  0  0  0  0
   -7.6360   -7.1610  -15.1730 C   0  0  0  0  0  0  0  0  0  0  0  0
   -8.1280   -7.2080  -14.0420 O   0  0  0  0  0  0  0  0  0  0  0  0
   -7.9030   -8.0700  -16.1270 N   0  0  0  0  0  0  0  0  0  0  0  0
   -8.7490   -9.1780  -16.0390 C   0  0  0  0  0  0  0  0  0  0  0  0
   -9.5620   -9.5060  -14.9340 C   0  0  0  0  0  0  0  0  0  0  0  0
  -10.4340  -10.5880  -15.0440 C   0  0  0  0  0  0  0  0  0  0  0  0
  -10.4700  -11.3160  -16.1600 N   0  0  0  0  0  0  0  0  0  0  0  0
   -9.7140  -11.0540  -17.2280 C   0  0  0  0  0  0  0  0  0  0  0  0
   -8.8520   -9.9560  -17.1920 C   0  0  0  0  0  0  0  0  0  0  0  0
   -9.8020  -11.9180  -18.3330 N   0  0  0  0  0  0  0  0  0  0  0  0
   -8.9400  -12.0630  -19.3690 C   0  0  0  0  0  0  0  0  0  0  0  0
   -7.8720  -11.4580  -19.4630 O   0  0  0  0  0  0  0  0  0  0  0  0
   -9.3940  -13.0040  -20.5100 C   0  0  1  0  0  0  0  0  0  0  0  0
   -8.9580  -12.6120  -21.9280 C   0  0  0  0  0  0  0  0  0  0  0  0
   -8.4100  -13.8630  -21.3220 C   0  0  1  0  0  0  0  0  0  0  0  0
   -6.8960  -13.9230  -21.0760 C   0  0  0  0  0  0  0  0  0  0  0  0
   -4.6025   -2.8576  -16.2126 H   0  0  0  0  0  0  0  0  0  0  0  0
   -3.5259   -5.0927  -16.0886 H   0  0  0  0  0  0  0  0  0  0  0  0
   -7.0563   -2.6256  -15.8824 H   0  0  0  0  0  0  0  0  0  0  0  0
   -7.4271   -7.9331  -17.0302 H   0  0  0  0  0  0  0  0  0  0  0  0
   -9.5090   -8.9200  -14.0046 H   0  0  0  0  0  0  0  0  0  0  0  0
  -11.0970  -10.8428  -14.2040 H   0  0  0  0  0  0  0  0  0  0  0  0
   -8.2509   -9.7033  -18.0779 H   0  0  0  0  0  0  0  0  0  0  0  0
  -10.6349  -12.5234  -18.3592 H   0  0  0  0  0  0  0  0  0  0  0  0
  -10.3212  -13.2365  -19.9658 H   0  0  0  0  0  0  0  0  0  0  0  0
   -9.6764  -12.6755  -22.7585 H   0  0  0  0  0  0  0  0  0  0  0  0
   -8.5119  -11.7125  -22.3773 H   0  0  0  0  0  0  0  0  0  0  0  0
   -8.3939  -14.9398  -21.5463 H   0  0  0  0  0  0  0  0  0  0  0  0
   -6.7004  -13.9308  -19.9936 H   0  0  0  0  0  0  0  0  0  0  0  0
   -6.4869  -14.8381  -21.5291 H   0  0  0  0  0  0  0  0  0  0  0  0
   -6.4158  -13.0432  -21.5291 H   0  0  0  0  0  0  0  0  0  0  0  0
  3  4  2  0
  3  8  1  0
  4  5  1  0
  2  5  1  0
  5  6  2  0
  6  9  1  0
  1  7  1  0
  6  7  1  0
  7  8  2  0
  9 10  2  0
  9 11  1  0
 11 12  1  0
 12 13  2  0
 13 14  1  0
 14 15  2  0
 15 16  1  0
 16 17  2  0
 12 17  1  0
 16 18  1  0
 18 19  1  0
 19 20  2  0
 19 21  1  0
 21 22  1  0
 22 23  1  0
 21 23  1  0
 23 24  1  0
  3 25  1  0
  4 26  1  0
  8 27  1  0
 11 28  1  0
 13 29  1  0
 14 30  1  0
 17 31  1  0
 18 32  1  0
 21 33  1  6
 22 34  1  0
 22 35  1  0
 23 36  1  6
 24 37  1  0
 24 38  1  0
 24 39  1  0
M  END
>  <dG.expt>  (13) 
-10.98

$$$$
jmc_27
     RDKit          3D

 36 38  0  0  1  0  0  0  0  0999 V2000
   -9.0680   -4.5930  -15.4580 Cl  0  0  0  0  0  0  0  0  0  0  0  0
   -4.5710   -7.6890  -15.6880 Cl  0  0  0  0  0  0  0  0  0  0  0  0
   -5.2160   -3.7490  -16.0150 C   0  0  0  0  0  0  0  0  0  0  0  0
   -4.6130   -5.0040  -15.9460 C   0  0  0  0  0  0  0  0  0  0  0  0
   -5.3690   -6.1460  -15.6990 C   0  0  0  0  0  0  0  0  0  0  0  0
   -6.7570   -6.0210  -15.5070 C   0  0  0  0  0  0  0  0  0  0  0  0
   -7.3530   -4.7470  -15.5980 C   0  0  0  0  0  0  0  0  0  0  0  0
   -6.5840   -3.6180  -15.8360 C   0  0  0  0  0  0  0  0  0  0  0  0
   -7.6360   -7.1610  -15.1730 C   0  0  0  0  0  0  0  0  0  0  0  0
   -8.1280   -7.2080  -14.0420 O   0  0  0  0  0  0  0  0  0  0  0  0
   -7.9030   -8.0700  -16.1270 N   0  0  0  0  0  0  0  0  0  0  0  0
   -8.7490   -9.1780  -16.0390 C   0  0  0  0  0  0  0  0  0  0  0  0
   -9.5620   -9.5060  -14.9340 C   0  0  0  0  0  0  0  0  0  0  0  0
  -10.4340  -10.5880  -15.0440 C   0  0  0  0  0  0  0  0  0  0  0  0
  -10.4700  -11.3160  -16.1600 N   0  0  0  0  0  0  0  0  0  0  0  0
   -9.7140  -11.0540  -17.2280 C   0  0  0  0  0  0  0  0  0  0  0  0
   -8.8520   -9.9560  -17.1920 C   0  0  0  0  0  0  0  0  0  0  0  0
   -9.8230  -11.9050  -18.3350 N   0  0  0  0  0  0  0  0  0  0  0  0
   -8.9520  -12.0790  -19.3550 C   0  0  0  0  0  0  0  0  0  0  0  0
   -7.8420  -11.5500  -19.4120 O   0  0  0  0  0  0  0  0  0  0  0  0
   -9.4580  -12.9330  -20.5320 C   0  0  1  0  0  0  0  0  0  0  0  0
   -8.8840  -12.5690  -21.9070 C   0  0  0  0  0  0  0  0  0  0  0  0
   -8.5440  -13.8910  -21.2990 C   0  0  1  0  0  0  0  0  0  0  0  0
   -6.8550  -14.2710  -20.8760 Cl  0  0  0  0  0  0  0  0  0  0  0  0
   -4.6025   -2.8576  -16.2126 H   0  0  0  0  0  0  0  0  0  0  0  0
   -3.5259   -5.0927  -16.0886 H   0  0  0  0  0  0  0  0  0  0  0  0
   -7.0563   -2.6256  -15.8824 H   0  0  0  0  0  0  0  0  0  0  0  0
   -7.4271   -7.9331  -17.0302 H   0  0  0  0  0  0  0  0  0  0  0  0
   -9.5090   -8.9200  -14.0046 H   0  0  0  0  0  0  0  0  0  0  0  0
  -11.0970  -10.8428  -14.2040 H   0  0  0  0  0  0  0  0  0  0  0  0
   -8.2509   -9.7033  -18.0779 H   0  0  0  0  0  0  0  0  0  0  0  0
  -10.6805  -12.4740  -18.3781 H   0  0  0  0  0  0  0  0  0  0  0  0
  -10.4405  -13.0584  -20.0535 H   0  0  0  0  0  0  0  0  0  0  0  0
   -9.5475  -12.5231  -22.7832 H   0  0  0  0  0  0  0  0  0  0  0  0
   -8.2987  -11.7258  -22.3026 H   0  0  0  0  0  0  0  0  0  0  0  0
   -8.6445  -14.9523  -21.5703 H   0  0  0  0  0  0  0  0  0  0  0  0
  3  4  2  0
  3  8  1  0
  4  5  1  0
  2  5  1  0
  5  6  2  0
  6  9  1  0
  1  7  1  0
  6  7  1  0
  7  8  2  0
  9 10  2  0
  9 11  1  0
 11 12  1  0
 12 13  2  0
 13 14  1  0
 14 15  2  0
 15 16  1  0
 16 17  2  0
 12 17  1  0
 16 18  1  0
 18 19  1  0
 19 20  2  0
 19 21  1  0
 21 22  1  0
 22 23  1  0
 21 23  1  0
 23 24  1  0
  3 25  1  0
  4 26  1  0
  8 27  1  0
 11 28  1  0
 13 29  1  0
 14 30  1  0
 17 31  1  0
 18 32  1  0
 21 33  1  6
 22 34  1  0
 22 35  1  0
 23 36  1  6
M  END
>  <dG.expt>  (14) 
-11.279999999999999

$$$$
jmc_30
     RDKit          3D

 37 39  0  0  1  0  0  0  0  0999 V2000
   -9.0680   -4.5930  -15.4580 Cl  0  0  0  0  0  0  0  0  0  0  0  0
   -4.5710   -7.6890  -15.6880 Cl  0  0  0  0  0  0  0  0  0  0  0  0
   -5.2160   -3.7490  -16.0150 C   0  0  0  0  0  0  0  0  0  0  0  0
   -4.6130   -5.0040  -15.9460 C   0  0  0  0  0  0  0  0  0  0  0  0
   -5.3690   -6.1460  -15.6990 C   0  0  0  0  0  0  0  0  0  0  0  0
   -6.7570   -6.0210  -15.5070 C   0  0  0  0  0  0  0  0  0  0  0  0
   -7.3530   -4.7470  -15.5980 C   0  0  0  0  0  0  0  0  0  0  0  0
   -6.5840   -3.6180  -15.8360 C   0  0  0  0  0  0  0  0  0  0  0  0
   -7.6360   -7.1610  -15.1730 C   0  0  0  0  0  0  0  0  0  0  0  0
   -8.1280   -7.2080  -14.0420 O   0  0  0  0  0  0  0  0  0  0  0  0
   -7.9030   -8.0700  -16.1270 N   0  0  0  0  0  0  0  0  0  0  0  0
   -8.7490   -9.1780  -16.0390 C   0  0  0  0  0  0  0  0  0  0  0  0
   -9.5620   -9.5060  -14.9340 C   0  0  0  0  0  0  0  0  0  0  0  0
  -10.4340  -10.5880  -15.0440 C   0  0  0  0  0  0  0  0  0  0  0  0
  -10.4700  -11.3160  -16.1600 N   0  0  0  0  0  0  0  0  0  0  0  0
   -9.7140  -11.0540  -17.2280 C   0  0  0  0  0  0  0  0  0  0  0  0
   -8.8520   -9.9560  -17.1920 C   0  0  0  0  0  0  0  0  0  0  0  0
   -9.8400  -11.8960  -18.3380 N   0  0  0  0  0  0  0  0  0  0  0  0
   -8.9760  -12.0870  -19.3590 C   0  0  0  0  0  0  0  0  0  0  0  0
   -7.8420  -11.6150  -19.4130 O   0  0  0  0  0  0  0  0  0  0  0  0
   -9.5280  -12.8900  -20.5460 C   0  0  1  0  0  0  0  0  0  0  0  0
   -8.9510  -12.5460  -21.9220 C   0  0  0  0  0  0  0  0  0  0  0  0
   -8.6700  -13.8890  -21.3230 C   0  0  1  0  0  0  0  0  0  0  0  0
   -7.2660  -14.2220  -21.0420 C   0  0  0  0  0  0  0  0  0  0  0  0
   -6.1600  -14.5070  -20.8460 N   0  0  0  0  0  0  0  0  0  0  0  0
   -4.6025   -2.8576  -16.2126 H   0  0  0  0  0  0  0  0  0  0  0  0
   -3.5259   -5.0927  -16.0886 H   0  0  0  0  0  0  0  0  0  0  0  0
   -7.0563   -2.6256  -15.8824 H   0  0  0  0  0  0  0  0  0  0  0  0
   -7.4271   -7.9331  -17.0302 H   0  0  0  0  0  0  0  0  0  0  0  0
   -9.5090   -8.9200  -14.0046 H   0  0  0  0  0  0  0  0  0  0  0  0
  -11.0970  -10.8428  -14.2040 H   0  0  0  0  0  0  0  0  0  0  0  0
   -8.2509   -9.7033  -18.0779 H   0  0  0  0  0  0  0  0  0  0  0  0
  -10.7102  -12.4453  -18.3831 H   0  0  0  0  0  0  0  0  0  0  0  0
  -10.5143  -12.9616  -20.0641 H   0  0  0  0  0  0  0  0  0  0  0  0
   -9.6195  -12.4626  -22.7915 H   0  0  0  0  0  0  0  0  0  0  0  0
   -8.3292  -11.7299  -22.3186 H   0  0  0  0  0  0  0  0  0  0  0  0
   -8.8352  -14.9498  -21.5628 H   0  0  0  0  0  0  0  0  0  0  0  0
  3  4  2  0
  3  8  1  0
  4  5  1  0
  2  5  1  0
  5  6  2  0
  6  9  1  0
  1  7  1  0
  6  7  1  0
  7  8  2  0
  9 10  2  0
  9 11  1  0
 11 12  1  0
 12 13  2  0
 13 14  1  0
 14 15  2  0
 15 16  1  0
 16 17  2  0
 12 17  1  0
 16 18  1  0
 18 19  1  0
 19 20  2  0
 19 21  1  0
 21 22  1  0
 22 23  1  0
 21 23  1  0
 23 24  1  0
 24 25  3  0
  3 26  1  0
  4 27  1  0
  8 28  1  0
 11 29  1  0
 13 30  1  0
 14 31  1  0
 17 32  1  0
 18 33  1  0
 21 34  1  6
 22 35  1  0
 22 36  1  0
 23 37  1  6
M  END
>  <dG.expt>  (15) 
-10.94

$$$$
ejm_46
     RDKit          3D

 36 38  0  0  0  0  0  0  0  0999 V2000
   -9.0680   -4.5930  -15.4580 Cl  0  0  0  0  0  0  0  0  0  0  0  0
   -4.5710   -7.6890  -15.6880 Cl  0  0  0  0  0  0  0  0  0  0  0  0
   -5.2160   -3.7490  -16.0150 C   0  0  0  0  0  0  0  0  0  0  0  0
   -4.6130   -5.0040  -15.9460 C   0  0  0  0  0  0  0  0  0  0  0  0
   -5.3690   -6.1460  -15.6990 C   0  0  0  0  0  0  0  0  0  0  0  0
   -6.7570   -6.0210  -15.5070 C   0  0  0  0  0  0  0  0  0  0  0  0
   -7.3530   -4.7470  -15.5980 C   0  0  0  0  0  0  0  0  0  0  0  0
   -6.5840   -3.6180  -15.8360 C   0  0  0  0  0  0  0  0  0  0  0  0
   -7.6360   -7.1610  -15.1730 C   0  0  0  0  0  0  0  0  0  0  0  0
   -8.1280   -7.2080  -14.0420 O   0  0  0  0  0  0  0  0  0  0  0  0
   -7.9030   -8.0700  -16.1270 N   0  0  0  0  0  0  0  0  0  0  0  0
   -8.7490   -9.1780  -16.0390 C   0  0  0  0  0  0  0  0  0  0  0  0
   -9.5620   -9.5060  -14.9340 C   0  0  0  0  0  0  0  0  0  0  0  0
  -10.4340  -10.5880  -15.0440 C   0  0  0  0  0  0  0  0  0  0  0  0
  -10.4700  -11.3160  -16.1600 N   0  0  0  0  0  0  0  0  0  0  0  0
   -9.7140  -11.0540  -17.2280 C   0  0  0  0  0  0  0  0  0  0  0  0
   -8.8520   -9.9560  -17.1920 C   0  0  0  0  0  0  0  0  0  0  0  0
   -9.8120  -11.9130  -18.3290 N   0  0  0  0  0  0  0  0  0  0  0  0
   -8.9500  -12.0560  -19.3610 C   0  0  0  0  0  0  0  0  0  0  0  0
   -7.8910  -11.4370  -19.4760 O   0  0  0  0  0  0  0  0  0  0  0  0
   -9.3450  -13.0590  -20.4590 C   0  0  0  0  0  0  0  0  0  0  0  0
   -8.9090  -12.7330  -21.8840 C   0  0  0  0  0  0  0  0  0  0  0  0
   -8.1990  -13.8180  -21.1230 C   0  0  0  0  0  0  0  0  0  0  0  0
   -4.6025   -2.8576  -16.2126 H   0  0  0  0  0  0  0  0  0  0  0  0
   -3.5259   -5.0927  -16.0886 H   0  0  0  0  0  0  0  0  0  0  0  0
   -7.0563   -2.6256  -15.8824 H   0  0  0  0  0  0  0  0  0  0  0  0
   -7.4271   -7.9331  -17.0302 H   0  0  0  0  0  0  0  0  0  0  0  0
   -9.5090   -8.9200  -14.0046 H   0  0  0  0  0  0  0  0  0  0  0  0
  -11.0970  -10.8428  -14.2040 H   0  0  0  0  0  0  0  0  0  0  0  0
   -8.2509   -9.7033  -18.0779 H   0  0  0  0  0  0  0  0  0  0  0  0
  -10.6484  -12.5134  -18.3566 H   0  0  0  0  0  0  0  0  0  0  0  0
  -10.2959  -13.3298  -19.9770 H   0  0  0  0  0  0  0  0  0  0  0  0
   -9.5614  -12.9935  -22.7304 H   0  0  0  0  0  0  0  0  0  0  0  0
   -8.5918  -11.8188  -22.4072 H   0  0  0  0  0  0  0  0  0  0  0  0
   -8.3335  -14.8703  -21.4138 H   0  0  0  0  0  0  0  0  0  0  0  0
   -7.1503  -14.0224  -20.8614 H   0  0  0  0  0  0  0  0  0  0  0  0
  3  4  2  0
  3  8  1  0
  4  5  1  0
  2  5  1  0
  5  6  2  0
  6  9  1  0
  1  7  1  0
  6  7  1  0
  7  8  2  0
  9 10  2  0
  9 11  1  0
 11 12  1  0
 12 13  2  0
 13 14  1  0
 14 15  2  0
 15 16  1  0
 16 17  2  0
 12 17  1  0
 16 18  1  0
 18 19  1  0
 19 20  2  0
 19 21  1  0
 21 22  1  0
 22 23  1  0
 21 23  1  0
  3 24  1  0
  4 25  1  0
  8 26  1  0
 11 27  1  0
 13 28  1  0
 14 29  1  0
 17 30  1  0
 18 31  1  0
 21 32  1  0
 22 33  1  0
 22 34  1  0
 23 35  1  0
 23 36  1  0
M  END
>  <dG.expt>  (16) 
-11.31

$$$$
